LTspice 24.1.9 for Windows
Circuit: C:\Users\Fitz Dumlao\Desktop\CueHa\copy.net
Start Time: Thu Oct  9 12:36:43 2025
solver = Normal
Maximum thread count: 12
tnom = 27
temp = 27
method = trap
Early termination of direct N-R iteration.
Direct Newton iteration failed to find .op point.  (Use ".option noopiter" to skip.)
Starting Gmin stepping
Gmin = 10
vernier = 0.5
Gmin = 1.67772
vernier = 0.25
vernier = 0.125
vernier = 0.0625
Gmin = 1.28099
vernier = 0.03125
vernier = 0.015625
vernier = 0.0078125
vernier = 0.00390625
Gmin = 1.25882
vernier = 0.00195312
vernier = 0.000976562
vernier = 0.000488281
Gmin = 0
Gmin stepping failed

Starting source stepping with srcstepmethod=0
Source Step = 3.0303%
Source Step = 33.3333%
Source Step = 63.6364%
Source Step = 93.9394%
Source stepping succeeded in finding the operating point.

Total elapsed time: 3.467 seconds.

Files loaded:
C:\Users\Fitz Dumlao\Desktop\CueHa\copy.net
C:\Users\Fitz Dumlao\AppData\Local\LTspice\lib\cmp\standard.dio
C:\Users\Fitz Dumlao\Desktop\CueHa\LM324.lib
C:\Users\Fitz Dumlao\AppData\Local\LTspice\lib\sub\LT1083.lib

